Circuit: * C:\Users\Ahmad Aziz\Data\Kuliah\semester 5\prak_elektronika_2\Rangkaian LTSpice\Percobaan 5 Osilator LC\Perc-5-SawTooth.asc

Early termination of direct N-R iteration.
Direct Newton iteration failed to find .op point.  (Use ".option noopiter" to skip.)
Starting Gmin stepping
Increasing initial diagonal Gmin to 100
Increasing initial diagonal Gmin to 1000
Gmin = 1000
vernier = 0.5
vernier = 0.25
vernier = 0.125
vernier = 0.0625
Gmin = 836.601
vernier = 0.03125
vernier = 0.015625
vernier = 0.0078125
vernier = 0.00390625
Gmin = 822.125
vernier = 0.00195313
vernier = 0.000976563
vernier = 0.000488281
Gmin = 0
Gmin = 0
Gmin stepping failed

Starting source stepping with srcstepmethod=0
Source Step = 3.0303%
Source Step = 33.3333%
Source Step = 63.6364%
Source Step = 93.9394%
Source stepping succeeded in finding the operating point.

Ignoring empty pin current: Ix(opamp:1)
Ignoring empty pin current: Ix(opamp:2)
Ignoring empty pin current: Ix(opamp:3)
Ignoring empty pin current: Ix(opamp:4)
Ignoring empty pin current: Ix(opamp:5)
Ignoring empty pin current: Ix(x1:inn)
Ignoring empty pin current: Ix(x1:inp)
Ignoring empty pin current: Ix(x1:vp)
Ignoring empty pin current: Ix(x1:vn)
Ignoring empty pin current: Ix(x1:out)
Ignoring empty pin current: Ix(x2:inn)
Ignoring empty pin current: Ix(x2:inp)
Ignoring empty pin current: Ix(x2:vp)
Ignoring empty pin current: Ix(x2:vn)
Ignoring empty pin current: Ix(x2:out)
Ignoring empty pin current: Ix(opamp:1)
Ignoring empty pin current: Ix(opamp:2)
Ignoring empty pin current: Ix(opamp:3)
Ignoring empty pin current: Ix(opamp:4)
Ignoring empty pin current: Ix(opamp:5)
Ignoring empty pin current: Ix(x1:inn)
Ignoring empty pin current: Ix(x1:inp)
Ignoring empty pin current: Ix(x1:vp)
Ignoring empty pin current: Ix(x1:vn)
Ignoring empty pin current: Ix(x1:out)
Ignoring empty pin current: Ix(x2:inn)
Ignoring empty pin current: Ix(x2:inp)
Ignoring empty pin current: Ix(x2:vp)
Ignoring empty pin current: Ix(x2:vn)
Ignoring empty pin current: Ix(x2:out)

Date: Tue Nov 15 12:58:37 2022
Total elapsed time: 0.423 seconds.

tnom = 27
temp = 27
method = modified trap
totiter = 21079
traniter = 19273
tranpoints = 5870
accept = 4362
rejected = 1508
matrix size = 64
fillins = 148
solver = Normal
Matrix Compiler1: 11.50 KB object code size  3.2/1.2/[1.0]
Matrix Compiler2: 7.91 KB object code size  1.0/1.1/[0.7]

