Circuit: * C:\Users\Ahmad Aziz\Data\Kuliah\semester 5\prak_elektronika_2\Rangkaian LTSpice\Percobaan 5 Osilator LC\Perc-5-Hartley.asc

Direct Newton iteration for .op point succeeded.

Date: Tue Nov 15 12:54:05 2022
Total elapsed time: 1.445 seconds.

tnom = 27
temp = 27
method = modified trap
totiter = 410587
traniter = 410582
tranpoints = 203189
accept = 202005
rejected = 1184
matrix size = 10
fillins = 7
solver = Normal
Matrix Compiler1:      59 opcodes  0.3/[0.2]/0.2
Matrix Compiler2: off  [0.1]/0.2/0.2

