Circuit: * C:\Users\Ahmad Aziz\Data\Kuliah\Prak Elka 2\Rangkaian LTSpice\Percobaan 1 Penguat Diferensial\Perc-01-04-commonmode.asc

Direct Newton iteration for .op point succeeded.

Date: Mon Sep 12 23:51:24 2022
Total elapsed time: 0.054 seconds.

tnom = 27
temp = 27
method = modified trap
totiter = 2089
traniter = 2082
tranpoints = 1042
accept = 1042
rejected = 0
matrix size = 22
fillins = 2
solver = Normal
Matrix Compiler1: 1.51 KB object code size  0.6/0.3/[0.2]
Matrix Compiler2: 1.90 KB object code size  0.3/0.5/[0.2]

