Circuit: * C:\Users\Ahmad Aziz\Data\Kuliah\Prak Elka 2\Rangkaian LTSpice\Percobaan 1 Penguat Diferensial\Perc-01-01-commonmode.asc

Direct Newton iteration for .op point succeeded.

Date: Mon Sep 12 23:10:15 2022
Total elapsed time: 0.074 seconds.

tnom = 27
temp = 27
method = modified trap
totiter = 2089
traniter = 2082
tranpoints = 1042
accept = 1042
rejected = 0
matrix size = 15
fillins = 0
solver = Normal
Matrix Compiler1: 792 bytes object code size  0.4/0.9/[0.3]
Matrix Compiler2: off  [0.3]/0.5/0.3

