Circuit: * C:\Users\Ahmad Aziz\Data\Kuliah\Prak Elka 2\Rangkaian LTSpice\Percobaan 1 Penguat Diferensial\Perc-01-02-commonmode.asc

Direct Newton iteration for .op point succeeded.

Date: Mon Sep 12 23:33:58 2022
Total elapsed time: 0.094 seconds.

tnom = 27
temp = 27
method = modified trap
totiter = 2089
traniter = 2082
tranpoints = 1042
accept = 1042
rejected = 0
matrix size = 15
fillins = 0
solver = Normal
Matrix Compiler1:      46 opcodes  0.3/[0.2]/0.2
Matrix Compiler2: 1.19 KB object code size  0.4/0.2/[0.2]

