Circuit: * C:\Users\Ahmad Aziz\Data\Kuliah\Prak Elka 2\Rangkaian LTSpice\Percobaan 1 Penguat Diferensial\Perc-01-03-differentialmode.asc

Direct Newton iteration for .op point succeeded.

Date: Mon Sep 12 23:45:45 2022
Total elapsed time: 0.107 seconds.

tnom = 27
temp = 27
method = modified trap
totiter = 2089
traniter = 2082
tranpoints = 1042
accept = 1042
rejected = 0
matrix size = 21
fillins = 2
solver = Normal
Matrix Compiler1: 1.00 KB object code size  0.4/0.2/[0.2]
Matrix Compiler2: off  [0.2]/0.3/0.2

