Circuit: * C:\Users\Ahmad Aziz\Data\Kuliah\Prak Elka 2\Rangkaian LTSpice\Percobaan 1 Penguat Diferensial\Perc-01-05-differentialmode.asc

Direct Newton iteration for .op point succeeded.

Date: Mon Sep 12 23:55:19 2022
Total elapsed time: 0.111 seconds.

tnom = 27
temp = 27
method = modified trap
totiter = 2090
traniter = 2082
tranpoints = 1042
accept = 1042
rejected = 0
matrix size = 32
fillins = 10
solver = Normal
Matrix Compiler1: 2.56 KB object code size  0.6/0.4/[0.3]
Matrix Compiler2: 2.83 KB object code size  0.3/0.4/[0.3]

