Circuit: * C:\Users\Ahmad Aziz\Data\Kuliah\semester 5\prak_elektronika_2\Rangkaian LTSpice\Percobaan 3 Penguat dengan Feedback\Perc-03-03-gainandinputresistance.asc

Direct Newton iteration for .op point succeeded.

Date: Mon Oct 17 23:52:12 2022
Total elapsed time: 0.073 seconds.

tnom = 27
temp = 27
method = modified trap
totiter = 2093
traniter = 2088
tranpoints = 1045
accept = 1045
rejected = 0
matrix size = 13
fillins = 2
solver = Normal
Matrix Compiler1:      47 opcodes  0.3/[0.1]/0.2
Matrix Compiler2: off  [0.1]/0.2/0.2

