Circuit: * C:\Users\Ahmad Aziz\Data\Kuliah\semester 5\prak_elektronika_2\Rangkaian LTSpice\Percobaan 3 Penguat dengan Feedback\Perc-03-01-outputresistance.asc

Direct Newton iteration for .op point succeeded.

Date: Wed Oct 05 12:46:32 2022
Total elapsed time: 0.072 seconds.

tnom = 27
temp = 27
method = modified trap
totiter = 2093
traniter = 2088
tranpoints = 1045
accept = 1045
rejected = 0
matrix size = 20
fillins = 0
solver = Normal
Matrix Compiler1: 1.17 KB object code size  0.4/0.3/[0.2]
Matrix Compiler2: 1.60 KB object code size  0.2/0.4/[0.2]

