Circuit: * C:\Users\Ahmad Aziz\Data\Kuliah\semester 5\prak_elektronika_2\Rangkaian LTSpice\Percobaan 3 Penguat dengan Feedback\Perc-03-01-gainandinputresistance.asc

Direct Newton iteration for .op point succeeded.

Date: Mon Oct 17 23:44:07 2022
Total elapsed time: 0.094 seconds.

tnom = 27
temp = 27
method = modified trap
totiter = 2094
traniter = 2089
tranpoints = 1045
accept = 1045
rejected = 0
matrix size = 12
fillins = 0
solver = Normal
Matrix Compiler1: 624 bytes object code size  0.2/0.1/[0.1]
Matrix Compiler2: 920 bytes object code size  0.1/0.2/[0.1]

