Circuit: * C:\Users\Ahmad Aziz\Data\Kuliah\semester 5\prak_elektronika_2\Rangkaian LTSpice\Percobaan 3 Penguat dengan Feedback\Perc-03-02-frequencyresponse.asc

Direct Newton iteration for .op point succeeded.

Date: Mon Oct 17 23:49:41 2022
Total elapsed time: 0.044 seconds.

tnom = 27
temp = 27
method = trap
totiter = 5
traniter = 0
tranpoints = 0
accept = 0
rejected = 0
matrix size = 12
fillins = 0
solver = Normal
Matrix Compiler1:      36 opcodes
Matrix Compiler2: 920 bytes object code size
